DEBUT(PAR_LOT='NON');
MAIL = LIRE_MAILLAGE(FORMAT='MED', UNITE=20);
MAIL = MODI_MAILLAGE(
    reuse=MAIL,
    MAILLAGE=MAIL,
    ORIE_PEAU_3D=_F(
        GROUP_MA=('G_INNER_region_0', 'G_OUTER_region_0', 'G_END_N1', 'G_END_N2', 'G_END_N3',),
        GROUP_MA_VOLU=('G_SOLID_region_0',),
    ),
);
MODELE = AFFE_MODELE(
    MAILLAGE=MAIL,
    AFFE=_F(
        TOUT='OUI',
        PHENOMENE='MECANIQUE',
        MODELISATION='3D',
    ),
);
MAT = DEFI_MATERIAU(
    ELAS=_F(
        E=2.100000000000E+11,
        NU=3.000000000000E-01,
        RHO=7.850000000000E+03,
        ALPHA=0.000000000000E+00,
    ),
);
CHMAT = AFFE_MATERIAU(
    MAILLAGE=MAIL,
    AFFE=_F(GROUP_MA='G_SOLID_region_0', MATER=MAT),
);
BC = AFFE_CHAR_MECA(
    MODELE=MODELE,
    DDL_IMPO=(
        _F(GROUP_MA='G_END_N1', DX=0.0, DY=0.0, DZ=0.0),
    ),
);
PRESSURE = AFFE_CHAR_MECA(
    MODELE=MODELE,
    PRES_REP=_F(
        GROUP_MA='G_INNER_region_0',
        PRES=1.000000000000E+06,
    ),
);
GRAVITY = AFFE_CHAR_MECA(
    MODELE=MODELE,
    PESANTEUR=_F(GRAVITE=9.80665, DIRECTION=(0.0, 0.0, -1.0)),
);
RESU = MECA_STATIQUE(
    MODELE=MODELE,
    CHAM_MATER=CHMAT,
    EXCIT=(_F(CHARGE=BC), _F(CHARGE=PRESSURE), _F(CHARGE=GRAVITY),),
);
RESU = CALC_CHAMP(
    reuse=RESU,
    RESULTAT=RESU,
    CONTRAINTE=('SIGM_ELGA', 'SIGM_ELNO'),
    CRITERES=('SIEQ_ELGA', 'SIEQ_ELNO'),
    FORCE='FORC_NODA',
);
IMPR_RESU(
    FORMAT='MED',
    UNITE=80,
    RESU=_F(RESULTAT=RESU, NOM_CHAM=('DEPL', 'SIGM_ELNO', 'SIEQ_ELNO', 'FORC_NODA')),
);
TAB_DEPL = CREA_TABLE(
    RESU=_F(RESULTAT=RESU, NOM_CHAM='DEPL', TOUT='OUI',
            NOM_CMP=('DX', 'DY', 'DZ')),
);
IMPR_TABLE(TABLE=TAB_DEPL, FORMAT='TABLEAU', UNITE=39, SEPARATEUR=',');
TAB_REAC = CREA_TABLE(
    RESU=_F(RESULTAT=RESU, NOM_CHAM='FORC_NODA', TOUT='OUI',
            NOM_CMP=('DX', 'DY', 'DZ')),
);
IMPR_TABLE(TABLE=TAB_REAC, FORMAT='TABLEAU', UNITE=40, SEPARATEUR=',');
TAB_SIEQ = CREA_TABLE(
    RESU=_F(RESULTAT=RESU, NOM_CHAM='SIEQ_ELNO', TOUT='OUI',
            NOM_CMP=('VMIS', 'TRESCA')),
);
IMPR_TABLE(TABLE=TAB_SIEQ, FORMAT='TABLEAU', UNITE=41, SEPARATEUR=',');
FIN();
